[H]OC([H])([H])C([H])([H])N1C([H])([H])C([H])([H])N(c2c([H])c([H])c(N([H])C(=O)c3c(Cl)c([H])c([H])c([H])c3Cl)c(F)c2[H])C([H])([H])C1([H])[H]
     RDKit          3D

 47 49  0  0  0  0  0  0  0  0999 V2000
   -7.9497    1.8513    0.1526 O   0  0  0  0  0  0  0  0  0  0  0  0
   -6.8295    1.2562    0.7770 C   0  0  0  0  0  0  0  0  0  0  0  0
   -6.0105    0.6342   -0.3123 C   0  0  0  0  0  0  0  0  0  0  0  0
   -4.8296   -0.0176    0.1440 N   0  0  0  0  0  0  0  0  0  0  0  0
   -4.1309   -0.5707   -0.9713 C   0  0  0  0  0  0  0  0  0  0  0  0
   -2.8817   -1.3468   -0.5974 C   0  0  0  0  0  0  0  0  0  0  0  0
   -2.1231   -0.6210    0.4217 N   0  0  0  0  0  0  0  0  0  0  0  0
   -2.8718   -0.0745    1.5005 C   0  0  0  0  0  0  0  0  0  0  0  0
   -4.0184    0.8054    1.0177 C   0  0  0  0  0  0  0  0  0  0  0  0
   -0.7173   -0.4870    0.3470 C   0  0  0  0  0  0  0  0  0  0  0  0
    0.0561   -1.3556   -0.4153 C   0  0  0  0  0  0  0  0  0  0  0  0
    1.4448   -1.2048   -0.4967 C   0  0  0  0  0  0  0  0  0  0  0  0
    2.0521   -0.1929    0.1799 C   0  0  0  0  0  0  0  0  0  0  0  0
    3.4348    0.0391    0.1606 N   0  0  0  0  0  0  0  0  0  0  0  0
    4.4349   -0.6644   -0.5026 C   0  0  0  0  0  0  0  0  0  0  0  0
    4.1018   -1.6726   -1.2304 O   0  0  0  0  0  0  0  0  0  0  0  0
    5.8657   -0.3900   -0.4802 C   0  0  0  0  0  0  0  0  0  0  0  0
    6.5782    0.2307    0.4955 C   0  0  0  0  0  0  0  0  0  0  0  0
    5.7850    0.6535    2.0099 Cl  0  0  0  0  0  0  0  0  0  0  0  0
    7.9541    0.5092    0.3749 C   0  0  0  0  0  0  0  0  0  0  0  0
    8.6301    0.1479   -0.7645 C   0  0  0  0  0  0  0  0  0  0  0  0
    7.9361   -0.4854   -1.7721 C   0  0  0  0  0  0  0  0  0  0  0  0
    6.5908   -0.7449   -1.6288 C   0  0  0  0  0  0  0  0  0  0  0  0
    5.7531   -1.5503   -2.9423 Cl  0  0  0  0  0  0  0  0  0  0  0  0
    1.2702    0.6703    0.9392 C   0  0  0  0  0  0  0  0  0  0  0  0
    1.8325    1.7148    1.6473 F   0  0  0  0  0  0  0  0  0  0  0  0
   -0.0913    0.5246    1.0203 C   0  0  0  0  0  0  0  0  0  0  0  0
   -8.4974    2.3575    0.7995 H   0  0  0  0  0  0  0  0  0  0  0  0
   -6.2965    2.0754    1.2883 H   0  0  0  0  0  0  0  0  0  0  0  0
   -7.2507    0.5155    1.4833 H   0  0  0  0  0  0  0  0  0  0  0  0
   -6.6500   -0.1263   -0.8135 H   0  0  0  0  0  0  0  0  0  0  0  0
   -5.8073    1.4275   -1.0731 H   0  0  0  0  0  0  0  0  0  0  0  0
   -3.8867    0.1965   -1.7527 H   0  0  0  0  0  0  0  0  0  0  0  0
   -4.8095   -1.2960   -1.4635 H   0  0  0  0  0  0  0  0  0  0  0  0
   -3.0818   -2.3574   -0.2404 H   0  0  0  0  0  0  0  0  0  0  0  0
   -2.2374   -1.4061   -1.4909 H   0  0  0  0  0  0  0  0  0  0  0  0
   -3.3969   -0.9342    2.0236 H   0  0  0  0  0  0  0  0  0  0  0  0
   -2.3023    0.4278    2.2632 H   0  0  0  0  0  0  0  0  0  0  0  0
   -4.6328    1.0276    1.9153 H   0  0  0  0  0  0  0  0  0  0  0  0
   -3.6551    1.7218    0.5454 H   0  0  0  0  0  0  0  0  0  0  0  0
   -0.4435   -2.1406   -0.9330 H   0  0  0  0  0  0  0  0  0  0  0  0
    1.9576   -1.9385   -1.1209 H   0  0  0  0  0  0  0  0  0  0  0  0
    3.7505    0.9018    0.7123 H   0  0  0  0  0  0  0  0  0  0  0  0
    8.4547    1.0089    1.1948 H   0  0  0  0  0  0  0  0  0  0  0  0
    9.6828    0.3855   -0.8043 H   0  0  0  0  0  0  0  0  0  0  0  0
    8.5000   -0.7548   -2.6510 H   0  0  0  0  0  0  0  0  0  0  0  0
   -0.6638    1.2495    1.6347 H   0  0  0  0  0  0  0  0  0  0  0  0
  1  2  1  0
  2  3  1  0
  3  4  1  0
  4  5  1  0
  5  6  1  0
  6  7  1  0
  7  8  1  0
  8  9  1  0
  7 10  1  0
 10 11  2  0
 11 12  1  0
 12 13  2  0
 13 14  1  0
 14 15  1  0
 15 16  2  0
 15 17  1  0
 17 18  2  0
 18 19  1  0
 18 20  1  0
 20 21  2  0
 21 22  1  0
 22 23  2  0
 23 24  1  0
 13 25  1  0
 25 26  1  0
 25 27  2  0
  9  4  1  0
 27 10  1  0
 23 17  1  0
  1 28  1  0
  2 29  1  0
  2 30  1  0
  3 31  1  0
  3 32  1  0
  5 33  1  0
  5 34  1  0
  6 35  1  0
  6 36  1  0
  8 37  1  0
  8 38  1  0
  9 39  1  0
  9 40  1  0
 11 41  1  0
 12 42  1  0
 14 43  1  0
 20 44  1  0
 21 45  1  0
 22 46  1  0
 27 47  1  0
M  END
$$$$
[H]c1nc(-c2c([H])nc3c([H])c([H])nn3c2-c2c([H])c([H])c([H])c([H])c2F)c([H])c(N([H])[H])c1[H]
     RDKit          3D

 35 38  0  0  0  0  0  0  0  0999 V2000
    4.4810   -1.5796    0.5395 N   0  0  0  0  0  0  0  0  0  0  0  0
    3.3761   -1.1171   -0.2271 C   0  0  0  0  0  0  0  0  0  0  0  0
    3.1766   -1.6017   -1.5045 C   0  0  0  0  0  0  0  0  0  0  0  0
    2.0848   -1.1108   -2.1904 C   0  0  0  0  0  0  0  0  0  0  0  0
    1.2506   -0.2039   -1.6483 N   0  0  0  0  0  0  0  0  0  0  0  0
    1.4136    0.2910   -0.4066 C   0  0  0  0  0  0  0  0  0  0  0  0
    2.4951   -0.1774    0.3090 C   0  0  0  0  0  0  0  0  0  0  0  0
    0.4945    1.2792    0.1665 C   0  0  0  0  0  0  0  0  0  0  0  0
    0.9118    2.5268    0.5607 C   0  0  0  0  0  0  0  0  0  0  0  0
    0.0109    3.3772    1.0745 N   0  0  0  0  0  0  0  0  0  0  0  0
   -1.2811    3.0752    1.2254 C   0  0  0  0  0  0  0  0  0  0  0  0
   -2.3564    3.7595    1.7110 C   0  0  0  0  0  0  0  0  0  0  0  0
   -3.4353    2.9096    1.6066 C   0  0  0  0  0  0  0  0  0  0  0  0
   -3.0136    1.7384    1.0686 N   0  0  0  0  0  0  0  0  0  0  0  0
   -1.6958    1.8663    0.8457 N   0  0  0  0  0  0  0  0  0  0  0  0
   -0.8357    0.9616    0.3195 C   0  0  0  0  0  0  0  0  0  0  0  0
   -1.3203   -0.3459   -0.0805 C   0  0  0  0  0  0  0  0  0  0  0  0
   -0.8890   -1.4705    0.5633 C   0  0  0  0  0  0  0  0  0  0  0  0
   -1.3258   -2.7533    0.2135 C   0  0  0  0  0  0  0  0  0  0  0  0
   -2.2205   -2.8514   -0.8185 C   0  0  0  0  0  0  0  0  0  0  0  0
   -2.6538   -1.7209   -1.4654 C   0  0  0  0  0  0  0  0  0  0  0  0
   -2.2135   -0.4421   -1.1112 C   0  0  0  0  0  0  0  0  0  0  0  0
   -2.6795    0.6569   -1.7916 F   0  0  0  0  0  0  0  0  0  0  0  0
    5.4092   -1.7713    0.1208 H   0  0  0  0  0  0  0  0  0  0  0  0
    4.3533   -1.7329    1.5651 H   0  0  0  0  0  0  0  0  0  0  0  0
    3.8465   -2.3342   -1.9486 H   0  0  0  0  0  0  0  0  0  0  0  0
    1.9111   -1.4767   -3.1909 H   0  0  0  0  0  0  0  0  0  0  0  0
    2.6386    0.2112    1.3096 H   0  0  0  0  0  0  0  0  0  0  0  0
    1.9582    2.7749    0.4400 H   0  0  0  0  0  0  0  0  0  0  0  0
   -2.3717    4.7632    2.1010 H   0  0  0  0  0  0  0  0  0  0  0  0
   -4.4528    3.1095    1.8931 H   0  0  0  0  0  0  0  0  0  0  0  0
   -0.1900   -1.4088    1.3750 H   0  0  0  0  0  0  0  0  0  0  0  0
   -0.9408   -3.6084    0.7703 H   0  0  0  0  0  0  0  0  0  0  0  0
   -2.5667   -3.8283   -1.1016 H   0  0  0  0  0  0  0  0  0  0  0  0
   -3.3695   -1.7654   -2.2934 H   0  0  0  0  0  0  0  0  0  0  0  0
  1  2  1  0
  2  3  2  0
  3  4  1  0
  4  5  2  0
  5  6  1  0
  6  7  2  0
  6  8  1  0
  8  9  1  0
  9 10  2  0
 10 11  1  0
 11 12  2  0
 12 13  1  0
 13 14  2  0
 14 15  1  0
 15 16  1  0
 16 17  1  0
 17 18  2  0
 18 19  1  0
 19 20  2  0
 20 21  1  0
 21 22  2  0
 22 23  1  0
  7  2  1  0
 16  8  2  0
 22 17  1  0
 15 11  1  0
  1 24  1  0
  1 25  1  0
  3 26  1  0
  4 27  1  0
  7 28  1  0
  9 29  1  0
 12 30  1  0
 13 31  1  0
 18 32  1  0
 19 33  1  0
 20 34  1  0
 21 35  1  0
M  END
$$$$
[H]c1nc(N([H])C([H])(C([H])([H])[H])C([H])([H])[H])c2c([H])nn(C3([H])C(=O)c4c([H])c(C5([H])C([H])([H])C([H])([H])C([H])([H])C5([H])[H])c([H])c([H])c4C3([H])[H])c2n1
     RDKit          3D

 53 57  0  0  0  0  0  0  0  0999 V2000
    7.4869    0.2146   -0.9943 C   0  0  0  0  0  0  0  0  0  0  0  0
    7.3287   -0.1771    0.4439 C   0  0  0  0  0  0  0  0  0  0  0  0
    7.2082   -1.6663    0.5533 C   0  0  0  0  0  0  0  0  0  0  0  0
    6.1323    0.4769    0.9623 N   0  0  0  0  0  0  0  0  0  0  0  0
    4.8886    0.1754    0.3353 C   0  0  0  0  0  0  0  0  0  0  0  0
    4.7904   -0.6756   -0.6969 N   0  0  0  0  0  0  0  0  0  0  0  0
    3.5775   -0.9271   -1.2573 C   0  0  0  0  0  0  0  0  0  0  0  0
    2.4455   -0.3398   -0.8038 N   0  0  0  0  0  0  0  0  0  0  0  0
    2.5233    0.5040    0.2154 C   0  0  0  0  0  0  0  0  0  0  0  0
    1.5838    1.2141    0.8560 N   0  0  0  0  0  0  0  0  0  0  0  0
    2.1946    1.9032    1.8063 N   0  0  0  0  0  0  0  0  0  0  0  0
    3.5003    1.6721    1.8136 C   0  0  0  0  0  0  0  0  0  0  0  0
    3.7534    0.7747    0.8023 C   0  0  0  0  0  0  0  0  0  0  0  0
    0.1856    1.2700    0.6207 C   0  0  0  0  0  0  0  0  0  0  0  0
   -0.2357    1.5406   -0.7763 C   0  0  0  0  0  0  0  0  0  0  0  0
   -1.6545    1.0938   -0.7876 C   0  0  0  0  0  0  0  0  0  0  0  0
   -2.7611    1.4224   -1.5446 C   0  0  0  0  0  0  0  0  0  0  0  0
   -3.9717    0.8087   -1.3103 C   0  0  0  0  0  0  0  0  0  0  0  0
   -4.1471   -0.1466   -0.3305 C   0  0  0  0  0  0  0  0  0  0  0  0
   -3.0298   -0.4610    0.4151 C   0  0  0  0  0  0  0  0  0  0  0  0
   -1.7933    0.1439    0.2002 C   0  0  0  0  0  0  0  0  0  0  0  0
   -0.5045   -0.0443    0.8797 C   0  0  0  0  0  0  0  0  0  0  0  0
   -0.0936   -1.0289    1.5036 O   0  0  0  0  0  0  0  0  0  0  0  0
   -5.4624   -0.7886   -0.1033 C   0  0  0  0  0  0  0  0  0  0  0  0
   -5.9298   -1.5752   -1.3018 C   0  0  0  0  0  0  0  0  0  0  0  0
   -7.4370   -1.6071   -1.1630 C   0  0  0  0  0  0  0  0  0  0  0  0
   -7.7467   -0.2121   -0.6856 C   0  0  0  0  0  0  0  0  0  0  0  0
   -6.5588    0.1888    0.1916 C   0  0  0  0  0  0  0  0  0  0  0  0
    8.5376    0.5728   -1.2014 H   0  0  0  0  0  0  0  0  0  0  0  0
    7.2937   -0.6425   -1.7006 H   0  0  0  0  0  0  0  0  0  0  0  0
    6.7800    1.0213   -1.2724 H   0  0  0  0  0  0  0  0  0  0  0  0
    8.2192    0.1522    1.0326 H   0  0  0  0  0  0  0  0  0  0  0  0
    7.0109   -2.0909   -0.4520 H   0  0  0  0  0  0  0  0  0  0  0  0
    8.1681   -2.0959    0.8885 H   0  0  0  0  0  0  0  0  0  0  0  0
    6.4342   -1.9735    1.2889 H   0  0  0  0  0  0  0  0  0  0  0  0
    6.1917    1.1355    1.7575 H   0  0  0  0  0  0  0  0  0  0  0  0
    3.5785   -1.6260   -2.0877 H   0  0  0  0  0  0  0  0  0  0  0  0
    4.2243    2.1233    2.5057 H   0  0  0  0  0  0  0  0  0  0  0  0
   -0.3391    1.9977    1.2773 H   0  0  0  0  0  0  0  0  0  0  0  0
   -0.1537    2.6113   -1.0616 H   0  0  0  0  0  0  0  0  0  0  0  0
    0.2802    0.8827   -1.5263 H   0  0  0  0  0  0  0  0  0  0  0  0
   -2.6599    2.1583   -2.3119 H   0  0  0  0  0  0  0  0  0  0  0  0
   -4.8672    1.0550   -1.9015 H   0  0  0  0  0  0  0  0  0  0  0  0
   -3.1330   -1.2200    1.2063 H   0  0  0  0  0  0  0  0  0  0  0  0
   -5.3431   -1.5181    0.7317 H   0  0  0  0  0  0  0  0  0  0  0  0
   -5.6957   -1.0830   -2.2669 H   0  0  0  0  0  0  0  0  0  0  0  0
   -5.4852   -2.5913   -1.2638 H   0  0  0  0  0  0  0  0  0  0  0  0
   -7.9519   -1.7779   -2.1144 H   0  0  0  0  0  0  0  0  0  0  0  0
   -7.7629   -2.3837   -0.4413 H   0  0  0  0  0  0  0  0  0  0  0  0
   -8.6919   -0.2183   -0.1384 H   0  0  0  0  0  0  0  0  0  0  0  0
   -7.7733    0.4724   -1.5577 H   0  0  0  0  0  0  0  0  0  0  0  0
   -6.9189    0.0839    1.2436 H   0  0  0  0  0  0  0  0  0  0  0  0
   -6.2156    1.2015   -0.0076 H   0  0  0  0  0  0  0  0  0  0  0  0
  1  2  1  0
  2  3  1  0
  2  4  1  0
  4  5  1  0
  5  6  2  0
  6  7  1  0
  7  8  2  0
  8  9  1  0
  9 10  1  0
 10 11  1  0
 11 12  2  0
 12 13  1  0
 10 14  1  0
 14 15  1  0
 15 16  1  0
 16 17  2  0
 17 18  1  0
 18 19  2  0
 19 20  1  0
 20 21  2  0
 21 22  1  0
 22 23  2  0
 19 24  1  0
 24 25  1  0
 25 26  1  0
 26 27  1  0
 27 28  1  0
 13  5  1  0
 22 14  1  0
 28 24  1  0
 13  9  2  0
 21 16  1  0
  1 29  1  0
  1 30  1  0
  1 31  1  0
  2 32  1  0
  3 33  1  0
  3 34  1  0
  3 35  1  0
  4 36  1  0
  7 37  1  0
 12 38  1  0
 14 39  1  0
 15 40  1  0
 15 41  1  0
 17 42  1  0
 18 43  1  0
 20 44  1  0
 24 45  1  0
 25 46  1  0
 25 47  1  0
 26 48  1  0
 26 49  1  0
 27 50  1  0
 27 51  1  0
 28 52  1  0
 28 53  1  0
M  END
$$$$
[H]c1nc([H])c(N([H])[H])c(-c2c([H])c([H])c3c(N([H])[H])c([H])c([H])c([H])c3c2[H])c1[H]
     RDKit          3D

 31 33  0  0  0  0  0  0  0  0999 V2000
   -2.4911   -1.9766    1.3923 N   0  0  0  0  0  0  0  0  0  0  0  0
   -3.0290   -0.7845    0.8315 C   0  0  0  0  0  0  0  0  0  0  0  0
   -4.4034   -0.6223    0.7834 C   0  0  0  0  0  0  0  0  0  0  0  0
   -4.9473    0.4869    0.2602 N   0  0  0  0  0  0  0  0  0  0  0  0
   -4.1675    1.4467   -0.2199 C   0  0  0  0  0  0  0  0  0  0  0  0
   -2.7900    1.3811   -0.2183 C   0  0  0  0  0  0  0  0  0  0  0  0
   -2.2430    0.2166    0.3315 C   0  0  0  0  0  0  0  0  0  0  0  0
   -0.7921    0.1139    0.3521 C   0  0  0  0  0  0  0  0  0  0  0  0
   -0.0490   -0.2880    1.4228 C   0  0  0  0  0  0  0  0  0  0  0  0
    1.3444   -0.3704    1.3864 C   0  0  0  0  0  0  0  0  0  0  0  0
    2.0135   -0.0377    0.2352 C   0  0  0  0  0  0  0  0  0  0  0  0
    3.3895   -0.0907    0.1132 C   0  0  0  0  0  0  0  0  0  0  0  0
    4.1302   -0.5137    1.2485 N   0  0  0  0  0  0  0  0  0  0  0  0
    4.0390    0.2471   -1.0493 C   0  0  0  0  0  0  0  0  0  0  0  0
    3.3276    0.6597   -2.1586 C   0  0  0  0  0  0  0  0  0  0  0  0
    1.9565    0.7135   -2.0400 C   0  0  0  0  0  0  0  0  0  0  0  0
    1.2968    0.3742   -0.8709 C   0  0  0  0  0  0  0  0  0  0  0  0
   -0.0791    0.4462   -0.8067 C   0  0  0  0  0  0  0  0  0  0  0  0
   -2.3849   -2.1195    2.4137 H   0  0  0  0  0  0  0  0  0  0  0  0
   -2.2037   -2.7160    0.6845 H   0  0  0  0  0  0  0  0  0  0  0  0
   -5.0152   -1.4391    1.1908 H   0  0  0  0  0  0  0  0  0  0  0  0
   -4.6198    2.3362   -0.6391 H   0  0  0  0  0  0  0  0  0  0  0  0
   -2.1525    2.1674   -0.6116 H   0  0  0  0  0  0  0  0  0  0  0  0
   -0.5588   -0.5540    2.3430 H   0  0  0  0  0  0  0  0  0  0  0  0
    1.9189   -0.6909    2.2437 H   0  0  0  0  0  0  0  0  0  0  0  0
    4.1467    0.0809    2.1055 H   0  0  0  0  0  0  0  0  0  0  0  0
    4.6596   -1.4132    1.2376 H   0  0  0  0  0  0  0  0  0  0  0  0
    5.1214    0.2075   -1.1516 H   0  0  0  0  0  0  0  0  0  0  0  0
    3.8199    0.9331   -3.0925 H   0  0  0  0  0  0  0  0  0  0  0  0
    1.3696    1.0329   -2.8913 H   0  0  0  0  0  0  0  0  0  0  0  0
   -0.6073    0.7725   -1.6911 H   0  0  0  0  0  0  0  0  0  0  0  0
  1  2  1  0
  2  3  2  0
  3  4  1  0
  4  5  2  0
  5  6  1  0
  6  7  2  0
  7  8  1  0
  8  9  2  0
  9 10  1  0
 10 11  2  0
 11 12  1  0
 12 13  1  0
 12 14  2  0
 14 15  1  0
 15 16  2  0
 16 17  1  0
 17 18  2  0
  7  2  1  0
 18  8  1  0
 17 11  1  0
  1 19  1  0
  1 20  1  0
  3 21  1  0
  5 22  1  0
  6 23  1  0
  9 24  1  0
 10 25  1  0
 13 26  1  0
 13 27  1  0
 14 28  1  0
 15 29  1  0
 16 30  1  0
 18 31  1  0
M  END
$$$$
[H]c1nc2c([H])c([H])n([H])c2c([H])c1N1C([H])([H])C([H])([H])C([H])([H])[C@]1([H])C([H])([H])[H]
     RDKit          3D

 30 32  0  0  0  0  0  0  0  0999 V2000
   -1.8127    1.7305    0.3733 C   0  0  0  0  0  0  0  0  0  0  0  0
   -1.7967    0.3275    0.8851 C   0  0  1  0  0  0  0  0  0  0  0  0
   -3.2124   -0.2280    0.8918 C   0  0  0  0  0  0  0  0  0  0  0  0
   -3.2744   -0.8115   -0.5182 C   0  0  0  0  0  0  0  0  0  0  0  0
   -1.9523   -1.5456   -0.5763 C   0  0  0  0  0  0  0  0  0  0  0  0
   -1.0470   -0.5660    0.0358 N   0  0  0  0  0  0  0  0  0  0  0  0
    0.3520   -0.5037   -0.1720 C   0  0  0  0  0  0  0  0  0  0  0  0
    0.9752   -1.4137   -1.0206 C   0  0  0  0  0  0  0  0  0  0  0  0
    2.3017   -1.3848   -1.2415 N   0  0  0  0  0  0  0  0  0  0  0  0
    3.0769   -0.4620   -0.6401 C   0  0  0  0  0  0  0  0  0  0  0  0
    4.4498   -0.2284   -0.7045 C   0  0  0  0  0  0  0  0  0  0  0  0
    4.6768    0.8423    0.1171 C   0  0  0  0  0  0  0  0  0  0  0  0
    3.4994    1.2432    0.6572 N   0  0  0  0  0  0  0  0  0  0  0  0
    2.4965    0.4547    0.2061 C   0  0  0  0  0  0  0  0  0  0  0  0
    1.1209    0.4512    0.4565 C   0  0  0  0  0  0  0  0  0  0  0  0
   -1.3003    1.8165   -0.6208 H   0  0  0  0  0  0  0  0  0  0  0  0
   -1.3331    2.4648    1.0551 H   0  0  0  0  0  0  0  0  0  0  0  0
   -2.8433    2.0596    0.2157 H   0  0  0  0  0  0  0  0  0  0  0  0
   -1.3479    0.3062    1.9052 H   0  0  0  0  0  0  0  0  0  0  0  0
   -3.9710    0.5417    1.0348 H   0  0  0  0  0  0  0  0  0  0  0  0
   -3.2267   -1.0495    1.6169 H   0  0  0  0  0  0  0  0  0  0  0  0
   -4.1413   -1.4535   -0.6749 H   0  0  0  0  0  0  0  0  0  0  0  0
   -3.2246    0.0575   -1.2133 H   0  0  0  0  0  0  0  0  0  0  0  0
   -2.0014   -2.4172    0.0720 H   0  0  0  0  0  0  0  0  0  0  0  0
   -1.6522   -1.7752   -1.6177 H   0  0  0  0  0  0  0  0  0  0  0  0
    0.3500   -2.1449   -1.4951 H   0  0  0  0  0  0  0  0  0  0  0  0
    5.1340   -0.8168   -1.3050 H   0  0  0  0  0  0  0  0  0  0  0  0
    5.6439    1.2831    0.2944 H   0  0  0  0  0  0  0  0  0  0  0  0
    3.3645    2.0358    1.3212 H   0  0  0  0  0  0  0  0  0  0  0  0
    0.6960    1.1859    1.1275 H   0  0  0  0  0  0  0  0  0  0  0  0
  1  2  1  0
  2  3  1  0
  3  4  1  0
  4  5  1  0
  5  6  1  0
  6  7  1  0
  7  8  2  0
  8  9  1  0
  9 10  2  0
 10 11  1  0
 11 12  2  0
 12 13  1  0
 13 14  1  0
 14 15  2  0
  6  2  1  0
 15  7  1  0
 14 10  1  0
  1 16  1  0
  1 17  1  0
  1 18  1  0
  2 19  1  1
  3 20  1  0
  3 21  1  0
  4 22  1  0
  4 23  1  0
  5 24  1  0
  5 25  1  0
  8 26  1  0
 11 27  1  0
 12 28  1  0
 13 29  1  0
 15 30  1  0
M  END
$$$$
[H]OC1=C(OC([H])([H])C([H])([H])N2C([H])([H])C([H])([H])C([H])([H])C2([H])[H])C([H])=C([H])C([H])=NC(c2c([H])nc3c(c2[H])c(N=C([H])N2C([H])([H])C([H])([H])N(C([H])([H])[H])C([H])([H])C2([H])[H])c([H])n3[H])=C1C([H])([H])C([H])([H])O[H]
     RDKit          3D

 75 79  0  0  0  0  0  0  0  0999 V2000
    9.6529    2.8189   -0.1885 C   0  0  0  0  0  0  0  0  0  0  0  0
    8.6475    2.1931   -1.0228 N   0  0  0  0  0  0  0  0  0  0  0  0
    8.6720    0.7662   -0.7576 C   0  0  0  0  0  0  0  0  0  0  0  0
    7.5475    0.0260   -1.4490 C   0  0  0  0  0  0  0  0  0  0  0  0
    6.2807    0.6779   -1.1332 N   0  0  0  0  0  0  0  0  0  0  0  0
    6.3378    1.8139   -0.2383 C   0  0  0  0  0  0  0  0  0  0  0  0
    7.3458    2.7786   -0.8564 C   0  0  0  0  0  0  0  0  0  0  0  0
    5.1033    0.1677   -1.7251 C   0  0  0  0  0  0  0  0  0  0  0  0
    4.2327   -0.5388   -1.1717 N   0  0  0  0  0  0  0  0  0  0  0  0
    4.0799   -1.0555    0.1068 C   0  0  0  0  0  0  0  0  0  0  0  0
    5.0182   -1.2463    1.0934 C   0  0  0  0  0  0  0  0  0  0  0  0
    4.3850   -1.7901    2.1487 N   0  0  0  0  0  0  0  0  0  0  0  0
    3.0799   -1.9496    1.8629 C   0  0  0  0  0  0  0  0  0  0  0  0
    2.0159   -2.4405    2.5346 N   0  0  0  0  0  0  0  0  0  0  0  0
    0.7762   -2.5068    2.0308 C   0  0  0  0  0  0  0  0  0  0  0  0
    0.5233   -2.0605    0.7605 C   0  0  0  0  0  0  0  0  0  0  0  0
    1.5808   -1.5509    0.0360 C   0  0  0  0  0  0  0  0  0  0  0  0
    2.8300   -1.5019    0.5865 C   0  0  0  0  0  0  0  0  0  0  0  0
   -0.8134   -2.1293    0.2206 C   0  0  0  0  0  0  0  0  0  0  0  0
   -1.6496   -1.2291    0.7025 C   0  0  0  0  0  0  0  0  0  0  0  0
   -1.1023   -0.3255    1.6792 C   0  0  0  0  0  0  0  0  0  0  0  0
   -1.5925   -0.3487    3.0837 C   0  0  0  0  0  0  0  0  0  0  0  0
   -0.8420    0.6088    3.8478 O   0  0  0  0  0  0  0  0  0  0  0  0
   -3.0771   -0.9391    0.3751 C   0  0  0  0  0  0  0  0  0  0  0  0
   -3.7848   -0.3378    1.3754 O   0  0  0  0  0  0  0  0  0  0  0  0
   -3.8274   -1.1481   -0.7202 C   0  0  0  0  0  0  0  0  0  0  0  0
   -5.1208   -0.7081   -0.5637 O   0  0  0  0  0  0  0  0  0  0  0  0
   -6.2209   -1.3342   -1.1393 C   0  0  0  0  0  0  0  0  0  0  0  0
   -7.5252   -0.6666   -0.7994 C   0  0  0  0  0  0  0  0  0  0  0  0
   -7.6024    0.7028   -1.2231 N   0  0  0  0  0  0  0  0  0  0  0  0
   -6.6907    1.5240   -0.4517 C   0  0  0  0  0  0  0  0  0  0  0  0
   -7.4018    2.8296   -0.2021 C   0  0  0  0  0  0  0  0  0  0  0  0
   -8.6969    2.7199   -0.9397 C   0  0  0  0  0  0  0  0  0  0  0  0
   -8.9273    1.2457   -1.0480 C   0  0  0  0  0  0  0  0  0  0  0  0
   -3.5503   -1.7433   -2.0369 C   0  0  0  0  0  0  0  0  0  0  0  0
   -2.6980   -2.6448   -2.5248 C   0  0  0  0  0  0  0  0  0  0  0  0
   -1.6535   -3.4073   -1.8085 C   0  0  0  0  0  0  0  0  0  0  0  0
   -0.9393   -3.2019   -0.7600 N   0  0  0  0  0  0  0  0  0  0  0  0
    9.9084    2.1945    0.6939 H   0  0  0  0  0  0  0  0  0  0  0  0
    9.2317    3.7701    0.2471 H   0  0  0  0  0  0  0  0  0  0  0  0
   10.5542    3.1103   -0.7456 H   0  0  0  0  0  0  0  0  0  0  0  0
    9.6325    0.3791   -1.1482 H   0  0  0  0  0  0  0  0  0  0  0  0
    8.6080    0.6000    0.3355 H   0  0  0  0  0  0  0  0  0  0  0  0
    7.7153   -0.1243   -2.5164 H   0  0  0  0  0  0  0  0  0  0  0  0
    7.4866   -0.9723   -0.9220 H   0  0  0  0  0  0  0  0  0  0  0  0
    5.3814    2.3720   -0.1904 H   0  0  0  0  0  0  0  0  0  0  0  0
    6.7281    1.4997    0.7293 H   0  0  0  0  0  0  0  0  0  0  0  0
    7.0079    3.0727   -1.8948 H   0  0  0  0  0  0  0  0  0  0  0  0
    7.3823    3.7328   -0.2809 H   0  0  0  0  0  0  0  0  0  0  0  0
    4.9051    0.4072   -2.8039 H   0  0  0  0  0  0  0  0  0  0  0  0
    6.0637   -1.0172    1.0615 H   0  0  0  0  0  0  0  0  0  0  0  0
    4.8604   -2.0403    3.0450 H   0  0  0  0  0  0  0  0  0  0  0  0
   -0.0184   -2.9380    2.6530 H   0  0  0  0  0  0  0  0  0  0  0  0
    1.4002   -1.1948   -0.9650 H   0  0  0  0  0  0  0  0  0  0  0  0
   -0.0088   -0.1427    1.6516 H   0  0  0  0  0  0  0  0  0  0  0  0
   -1.4713    0.7310    1.3053 H   0  0  0  0  0  0  0  0  0  0  0  0
   -2.6345    0.0338    3.2423 H   0  0  0  0  0  0  0  0  0  0  0  0
   -1.5684   -1.3208    3.5966 H   0  0  0  0  0  0  0  0  0  0  0  0
   -0.3626    1.2056    3.2383 H   0  0  0  0  0  0  0  0  0  0  0  0
   -4.7267   -0.6741    1.5502 H   0  0  0  0  0  0  0  0  0  0  0  0
   -6.2824   -2.3981   -0.7687 H   0  0  0  0  0  0  0  0  0  0  0  0
   -6.0890   -1.4444   -2.2387 H   0  0  0  0  0  0  0  0  0  0  0  0
   -7.6850   -0.7241    0.2887 H   0  0  0  0  0  0  0  0  0  0  0  0
   -8.3489   -1.2413   -1.2704 H   0  0  0  0  0  0  0  0  0  0  0  0
   -6.4687    1.0441    0.5452 H   0  0  0  0  0  0  0  0  0  0  0  0
   -5.7389    1.6715   -0.9762 H   0  0  0  0  0  0  0  0  0  0  0  0
   -6.7824    3.7036   -0.5328 H   0  0  0  0  0  0  0  0  0  0  0  0
   -7.5823    2.9729    0.8855 H   0  0  0  0  0  0  0  0  0  0  0  0
   -8.5957    3.1343   -1.9641 H   0  0  0  0  0  0  0  0  0  0  0  0
   -9.4990    3.2436   -0.3770 H   0  0  0  0  0  0  0  0  0  0  0  0
   -9.4320    0.8051   -0.1591 H   0  0  0  0  0  0  0  0  0  0  0  0
   -9.5462    1.0497   -1.9732 H   0  0  0  0  0  0  0  0  0  0  0  0
   -4.1796   -1.3689   -2.8250 H   0  0  0  0  0  0  0  0  0  0  0  0
   -2.7624   -2.8592   -3.5756 H   0  0  0  0  0  0  0  0  0  0  0  0
   -1.4761   -4.3417   -2.3119 H   0  0  0  0  0  0  0  0  0  0  0  0
  1  2  1  0
  2  3  1  0
  3  4  1  0
  4  5  1  0
  5  6  1  0
  6  7  1  0
  5  8  1  0
  8  9  2  3
  9 10  1  0
 10 11  2  0
 11 12  1  0
 12 13  1  0
 13 14  2  0
 14 15  1  0
 15 16  2  0
 16 17  1  0
 17 18  2  0
 16 19  1  0
 19 20  2  0
 20 21  1  0
 21 22  1  0
 22 23  1  0
 20 24  1  0
 24 25  1  0
 24 26  2  0
 26 27  1  0
 27 28  1  0
 28 29  1  0
 29 30  1  0
 30 31  1  0
 31 32  1  0
 32 33  1  0
 33 34  1  0
 26 35  1  0
 35 36  2  0
 36 37  1  0
 37 38  2  0
  7  2  1  0
 18 10  1  0
 38 19  1  0
 18 13  1  0
 34 30  1  0
  1 39  1  0
  1 40  1  0
  1 41  1  0
  3 42  1  0
  3 43  1  0
  4 44  1  0
  4 45  1  0
  6 46  1  0
  6 47  1  0
  7 48  1  0
  7 49  1  0
  8 50  1  0
 11 51  1  0
 12 52  1  0
 15 53  1  0
 17 54  1  0
 21 55  1  0
 21 56  1  0
 22 57  1  0
 22 58  1  0
 23 59  1  0
 25 60  1  0
 28 61  1  0
 28 62  1  0
 29 63  1  0
 29 64  1  0
 31 65  1  0
 31 66  1  0
 32 67  1  0
 32 68  1  0
 33 69  1  0
 33 70  1  0
 34 71  1  0
 34 72  1  0
 35 73  1  0
 36 74  1  0
 37 75  1  0
M  END
$$$$
[H]c1nn(C2([H])C([H])([H])C([H])([H])N(C([H])([H])[H])C([H])([H])C2([H])[H])c([H])c1-c1c([H])nc2c([H])c([H])c([H])c([H])n12
     RDKit          3D

 40 43  0  0  0  0  0  0  0  0999 V2000
    5.5403    1.6011    0.1508 C   0  0  0  0  0  0  0  0  0  0  0  0
    4.2866    1.1446    0.7711 N   0  0  0  0  0  0  0  0  0  0  0  0
    3.2217    1.6537   -0.0741 C   0  0  0  0  0  0  0  0  0  0  0  0
    1.8640    1.1903    0.3355 C   0  0  0  0  0  0  0  0  0  0  0  0
    1.9040   -0.2092    0.8652 C   0  0  0  0  0  0  0  0  0  0  0  0
    3.0839   -0.9154    0.2042 C   0  0  0  0  0  0  0  0  0  0  0  0
    4.3354   -0.2872    0.7973 C   0  0  0  0  0  0  0  0  0  0  0  0
    0.6737   -0.9213    0.5817 N   0  0  0  0  0  0  0  0  0  0  0  0
   -0.5823   -0.3856    0.4360 C   0  0  0  0  0  0  0  0  0  0  0  0
   -1.4526   -1.4055    0.1767 C   0  0  0  0  0  0  0  0  0  0  0  0
   -0.6767   -2.5702    0.1719 C   0  0  0  0  0  0  0  0  0  0  0  0
    0.5762   -2.2145    0.4185 N   0  0  0  0  0  0  0  0  0  0  0  0
   -2.8751   -1.3873   -0.0554 C   0  0  0  0  0  0  0  0  0  0  0  0
   -3.6337   -2.5351   -0.3108 C   0  0  0  0  0  0  0  0  0  0  0  0
   -4.9151   -2.2450   -0.4887 N   0  0  0  0  0  0  0  0  0  0  0  0
   -5.0189   -0.9105   -0.3540 C   0  0  0  0  0  0  0  0  0  0  0  0
   -6.1554   -0.1496   -0.4545 C   0  0  0  0  0  0  0  0  0  0  0  0
   -6.0138    1.2072   -0.2768 C   0  0  0  0  0  0  0  0  0  0  0  0
   -4.7817    1.7476   -0.0125 C   0  0  0  0  0  0  0  0  0  0  0  0
   -3.6634    0.9101    0.0763 C   0  0  0  0  0  0  0  0  0  0  0  0
   -3.7818   -0.4034   -0.0927 N   0  0  0  0  0  0  0  0  0  0  0  0
    5.4924    2.6882    0.0968 H   0  0  0  0  0  0  0  0  0  0  0  0
    5.5117    1.1619   -0.8857 H   0  0  0  0  0  0  0  0  0  0  0  0
    6.4195    1.1822    0.6373 H   0  0  0  0  0  0  0  0  0  0  0  0
    3.2485    2.7578    0.0054 H   0  0  0  0  0  0  0  0  0  0  0  0
    3.4654    1.4014   -1.1369 H   0  0  0  0  0  0  0  0  0  0  0  0
    1.2075    1.1722   -0.5785 H   0  0  0  0  0  0  0  0  0  0  0  0
    1.3722    1.8975    1.0608 H   0  0  0  0  0  0  0  0  0  0  0  0
    2.1056   -0.1930    1.9674 H   0  0  0  0  0  0  0  0  0  0  0  0
    2.9957   -0.7063   -0.8816 H   0  0  0  0  0  0  0  0  0  0  0  0
    3.0386   -1.9809    0.4283 H   0  0  0  0  0  0  0  0  0  0  0  0
    5.1983   -0.7109    0.2165 H   0  0  0  0  0  0  0  0  0  0  0  0
    4.4032   -0.6594    1.8466 H   0  0  0  0  0  0  0  0  0  0  0  0
   -0.7221    0.6593    0.5319 H   0  0  0  0  0  0  0  0  0  0  0  0
   -1.0812   -3.5773   -0.0093 H   0  0  0  0  0  0  0  0  0  0  0  0
   -3.2298   -3.5280   -0.3573 H   0  0  0  0  0  0  0  0  0  0  0  0
   -7.1359   -0.5377   -0.6600 H   0  0  0  0  0  0  0  0  0  0  0  0
   -6.8630    1.8893   -0.3390 H   0  0  0  0  0  0  0  0  0  0  0  0
   -4.6535    2.8110    0.1295 H   0  0  0  0  0  0  0  0  0  0  0  0
   -2.7086    1.3583    0.2844 H   0  0  0  0  0  0  0  0  0  0  0  0
  1  2  1  0
  2  3  1  0
  3  4  1  0
  4  5  1  0
  5  6  1  0
  6  7  1  0
  5  8  1  0
  8  9  1  0
  9 10  2  0
 10 11  1  0
 11 12  2  0
 10 13  1  0
 13 14  2  0
 14 15  1  0
 15 16  2  0
 16 17  1  0
 17 18  2  0
 18 19  1  0
 19 20  2  0
 20 21  1  0
  7  2  1  0
 12  8  1  0
 21 13  1  0
 21 16  1  0
  1 22  1  0
  1 23  1  0
  1 24  1  0
  3 25  1  0
  3 26  1  0
  4 27  1  0
  4 28  1  0
  5 29  1  0
  6 30  1  0
  6 31  1  0
  7 32  1  0
  7 33  1  0
  9 34  1  0
 11 35  1  0
 14 36  1  0
 17 37  1  0
 18 38  1  0
 19 39  1  0
 20 40  1  0
M  END
$$$$
[H]c1nc(N([H])c2nc([H])c(C(=O)N([H])C(C([H])([H])[H])(C([H])([H])[H])C([H])([H])[H])c(N([H])C([H])([H])C([H])([H])N(C([H])([H])C([H])([H])[H])C([H])([H])C([H])([H])[H])n2)c([H])c(Oc2c([H])c([H])c([H])c([H])c2F)c1[H]
     RDKit          3D

 70 72  0  0  0  0  0  0  0  0999 V2000
   -2.2764    4.5967   -0.1827 C   0  0  0  0  0  0  0  0  0  0  0  0
   -2.0334    3.9610   -1.5353 C   0  0  0  0  0  0  0  0  0  0  0  0
   -3.0233    3.0837   -1.9888 N   0  0  0  0  0  0  0  0  0  0  0  0
   -4.2954    3.5603   -2.3296 C   0  0  0  0  0  0  0  0  0  0  0  0
   -5.2201    2.4595   -2.8023 C   0  0  0  0  0  0  0  0  0  0  0  0
   -2.8659    1.7291   -1.6079 C   0  0  0  0  0  0  0  0  0  0  0  0
   -3.0486    1.5206   -0.1434 C   0  0  0  0  0  0  0  0  0  0  0  0
   -2.8994    0.1070    0.1909 N   0  0  0  0  0  0  0  0  0  0  0  0
   -1.6579   -0.5415    0.1676 C   0  0  0  0  0  0  0  0  0  0  0  0
   -0.5831    0.2710   -0.1054 N   0  0  0  0  0  0  0  0  0  0  0  0
    0.6545   -0.2132   -0.1192 C   0  0  0  0  0  0  0  0  0  0  0  0
    1.7750    0.6133   -0.3951 N   0  0  0  0  0  0  0  0  0  0  0  0
    3.0958    0.1381   -0.4244 C   0  0  0  0  0  0  0  0  0  0  0  0
    4.1503    0.9755   -0.6907 C   0  0  0  0  0  0  0  0  0  0  0  0
    5.4596    0.4788   -0.7218 C   0  0  0  0  0  0  0  0  0  0  0  0
    6.4785    1.3599   -0.9925 O   0  0  0  0  0  0  0  0  0  0  0  0
    7.1230    2.0153    0.0400 C   0  0  0  0  0  0  0  0  0  0  0  0
    6.7437    1.7939    1.3507 C   0  0  0  0  0  0  0  0  0  0  0  0
    7.3943    2.4525    2.3650 C   0  0  0  0  0  0  0  0  0  0  0  0
    8.4193    3.3309    2.1034 C   0  0  0  0  0  0  0  0  0  0  0  0
    8.7871    3.5428    0.8019 C   0  0  0  0  0  0  0  0  0  0  0  0
    8.1526    2.8965   -0.2375 C   0  0  0  0  0  0  0  0  0  0  0  0
    8.5357    3.1219   -1.5363 F   0  0  0  0  0  0  0  0  0  0  0  0
    5.6439   -0.8605   -0.4789 C   0  0  0  0  0  0  0  0  0  0  0  0
    4.5712   -1.7052   -0.2092 C   0  0  0  0  0  0  0  0  0  0  0  0
    3.3465   -1.1511   -0.1975 N   0  0  0  0  0  0  0  0  0  0  0  0
    0.8322   -1.5032    0.1372 N   0  0  0  0  0  0  0  0  0  0  0  0
   -0.1977   -2.3465    0.4124 C   0  0  0  0  0  0  0  0  0  0  0  0
   -1.5014   -1.8755    0.4348 C   0  0  0  0  0  0  0  0  0  0  0  0
   -2.5694   -2.7960    0.7064 C   0  0  0  0  0  0  0  0  0  0  0  0
   -3.7656   -2.4599    0.7020 O   0  0  0  0  0  0  0  0  0  0  0  0
   -2.3176   -4.1545    0.9987 N   0  0  0  0  0  0  0  0  0  0  0  0
   -3.3838   -5.1046    1.2757 C   0  0  0  0  0  0  0  0  0  0  0  0
   -2.7815   -6.4468    1.5637 C   0  0  0  0  0  0  0  0  0  0  0  0
   -4.1907   -4.5642    2.4355 C   0  0  0  0  0  0  0  0  0  0  0  0
   -4.3316   -5.2593    0.1073 C   0  0  0  0  0  0  0  0  0  0  0  0
   -2.4184    5.6862   -0.2401 H   0  0  0  0  0  0  0  0  0  0  0  0
   -1.4429    4.3621    0.5059 H   0  0  0  0  0  0  0  0  0  0  0  0
   -3.2220    4.1923    0.2798 H   0  0  0  0  0  0  0  0  0  0  0  0
   -1.9166    4.7944   -2.2793 H   0  0  0  0  0  0  0  0  0  0  0  0
   -1.0224    3.4678   -1.5305 H   0  0  0  0  0  0  0  0  0  0  0  0
   -4.8408    4.1035   -1.5327 H   0  0  0  0  0  0  0  0  0  0  0  0
   -4.2099    4.2865   -3.1878 H   0  0  0  0  0  0  0  0  0  0  0  0
   -5.4276    1.7659   -1.9708 H   0  0  0  0  0  0  0  0  0  0  0  0
   -4.7698    1.8944   -3.6527 H   0  0  0  0  0  0  0  0  0  0  0  0
   -6.1896    2.9292   -3.0908 H   0  0  0  0  0  0  0  0  0  0  0  0
   -1.8352    1.4294   -1.8888 H   0  0  0  0  0  0  0  0  0  0  0  0
   -3.5142    1.0320   -2.2158 H   0  0  0  0  0  0  0  0  0  0  0  0
   -2.1636    2.0131    0.3614 H   0  0  0  0  0  0  0  0  0  0  0  0
   -3.9825    1.8859    0.2739 H   0  0  0  0  0  0  0  0  0  0  0  0
   -3.7669   -0.4014    0.4585 H   0  0  0  0  0  0  0  0  0  0  0  0
    1.6393    1.6524   -0.5945 H   0  0  0  0  0  0  0  0  0  0  0  0
    4.0179    2.0298   -0.8830 H   0  0  0  0  0  0  0  0  0  0  0  0
    5.9338    1.0999    1.5552 H   0  0  0  0  0  0  0  0  0  0  0  0
    7.0584    2.2443    3.3865 H   0  0  0  0  0  0  0  0  0  0  0  0
    8.9085    3.8323    2.9407 H   0  0  0  0  0  0  0  0  0  0  0  0
    9.5865    4.2274    0.5914 H   0  0  0  0  0  0  0  0  0  0  0  0
    6.6510   -1.2688   -0.4974 H   0  0  0  0  0  0  0  0  0  0  0  0
    4.7453   -2.7410   -0.0240 H   0  0  0  0  0  0  0  0  0  0  0  0
    0.0725   -3.3730    0.6038 H   0  0  0  0  0  0  0  0  0  0  0  0
   -1.3558   -4.5104    1.0239 H   0  0  0  0  0  0  0  0  0  0  0  0
   -1.8784   -6.3617    2.2180 H   0  0  0  0  0  0  0  0  0  0  0  0
   -2.4775   -6.9329    0.6251 H   0  0  0  0  0  0  0  0  0  0  0  0
   -3.5267   -7.0767    2.1209 H   0  0  0  0  0  0  0  0  0  0  0  0
   -4.4547   -5.4310    3.0806 H   0  0  0  0  0  0  0  0  0  0  0  0
   -5.1417   -4.1039    2.0751 H   0  0  0  0  0  0  0  0  0  0  0  0
   -3.5900   -3.8575    3.0282 H   0  0  0  0  0  0  0  0  0  0  0  0
   -5.3956   -5.1837    0.3994 H   0  0  0  0  0  0  0  0  0  0  0  0
   -4.1589   -6.2328   -0.3940 H   0  0  0  0  0  0  0  0  0  0  0  0
   -4.1321   -4.4804   -0.6406 H   0  0  0  0  0  0  0  0  0  0  0  0
  1  2  1  0
  2  3  1  0
  3  4  1  0
  4  5  1  0
  3  6  1  0
  6  7  1  0
  7  8  1  0
  8  9  1  0
  9 10  2  0
 10 11  1  0
 11 12  1  0
 12 13  1  0
 13 14  2  0
 14 15  1  0
 15 16  1  0
 16 17  1  0
 17 18  2  0
 18 19  1  0
 19 20  2  0
 20 21  1  0
 21 22  2  0
 22 23  1  0
 15 24  2  0
 24 25  1  0
 25 26  2  0
 11 27  2  0
 27 28  1  0
 28 29  2  0
 29 30  1  0
 30 31  2  0
 30 32  1  0
 32 33  1  0
 33 34  1  0
 33 35  1  0
 33 36  1  0
 29  9  1  0
 26 13  1  0
 22 17  1  0
  1 37  1  0
  1 38  1  0
  1 39  1  0
  2 40  1  0
  2 41  1  0
  4 42  1  0
  4 43  1  0
  5 44  1  0
  5 45  1  0
  5 46  1  0
  6 47  1  0
  6 48  1  0
  7 49  1  0
  7 50  1  0
  8 51  1  0
 12 52  1  0
 14 53  1  0
 18 54  1  0
 19 55  1  0
 20 56  1  0
 21 57  1  0
 24 58  1  0
 25 59  1  0
 28 60  1  0
 32 61  1  0
 34 62  1  0
 34 63  1  0
 34 64  1  0
 35 65  1  0
 35 66  1  0
 35 67  1  0
 36 68  1  0
 36 69  1  0
 36 70  1  0
M  END
$$$$
[H]c1nc2c(N([H])[H])c([H])nc(N([H])[H])c2c(-c2c([H])nc([H])c3nc([H])n(-c4c([H])c([H])c(OC([H])([H])[H])c([H])c4[H])c23)c1[H]
     RDKit          3D

 46 50  0  0  0  0  0  0  0  0999 V2000
    3.3765    3.9874   -0.7469 C   0  0  0  0  0  0  0  0  0  0  0  0
    3.2701    3.1455    0.3585 O   0  0  0  0  0  0  0  0  0  0  0  0
    2.7904    1.8446    0.3323 C   0  0  0  0  0  0  0  0  0  0  0  0
    2.3403    1.1953   -0.7900 C   0  0  0  0  0  0  0  0  0  0  0  0
    1.8799   -0.1184   -0.7233 C   0  0  0  0  0  0  0  0  0  0  0  0
    1.8553   -0.8304    0.4750 C   0  0  0  0  0  0  0  0  0  0  0  0
    2.3106   -0.1548    1.5792 C   0  0  0  0  0  0  0  0  0  0  0  0
    2.7673    1.1432    1.5295 C   0  0  0  0  0  0  0  0  0  0  0  0
    1.4423   -2.1750    0.4440 N   0  0  0  0  0  0  0  0  0  0  0  0
    2.3454   -3.2203    0.3714 C   0  0  0  0  0  0  0  0  0  0  0  0
    1.6900   -4.3766    0.3095 N   0  0  0  0  0  0  0  0  0  0  0  0
    0.3795   -4.0663    0.3437 C   0  0  0  0  0  0  0  0  0  0  0  0
   -0.7339   -4.8742    0.2857 C   0  0  0  0  0  0  0  0  0  0  0  0
   -1.9681   -4.3613    0.3118 N   0  0  0  0  0  0  0  0  0  0  0  0
   -2.1325   -3.0619    0.3957 C   0  0  0  0  0  0  0  0  0  0  0  0
   -1.0766   -2.1686    0.4599 C   0  0  0  0  0  0  0  0  0  0  0  0
   -1.3709   -0.8098    0.7335 C   0  0  0  0  0  0  0  0  0  0  0  0
   -1.2913   -0.4168    2.0567 C   0  0  0  0  0  0  0  0  0  0  0  0
   -1.6644    0.8281    2.4662 C   0  0  0  0  0  0  0  0  0  0  0  0
   -2.1190    1.6873    1.5494 N   0  0  0  0  0  0  0  0  0  0  0  0
   -2.2265    1.3836    0.2535 C   0  0  0  0  0  0  0  0  0  0  0  0
   -2.6927    2.3626   -0.5842 C   0  0  0  0  0  0  0  0  0  0  0  0
   -3.0762    3.6601   -0.1613 N   0  0  0  0  0  0  0  0  0  0  0  0
   -2.7784    2.0416   -1.9199 C   0  0  0  0  0  0  0  0  0  0  0  0
   -2.4215    0.8295   -2.3696 N   0  0  0  0  0  0  0  0  0  0  0  0
   -1.9608   -0.1285   -1.5225 C   0  0  0  0  0  0  0  0  0  0  0  0
   -1.5779   -1.3762   -2.0780 N   0  0  0  0  0  0  0  0  0  0  0  0
   -1.8404    0.0944   -0.1705 C   0  0  0  0  0  0  0  0  0  0  0  0
    0.2075   -2.6759    0.4314 C   0  0  0  0  0  0  0  0  0  0  0  0
    3.4504    3.4469   -1.7264 H   0  0  0  0  0  0  0  0  0  0  0  0
    2.5758    4.7545   -0.7596 H   0  0  0  0  0  0  0  0  0  0  0  0
    4.3710    4.5260   -0.6624 H   0  0  0  0  0  0  0  0  0  0  0  0
    2.3561    1.7411   -1.7310 H   0  0  0  0  0  0  0  0  0  0  0  0
    1.5357   -0.5995   -1.6265 H   0  0  0  0  0  0  0  0  0  0  0  0
    2.2873   -0.7246    2.5130 H   0  0  0  0  0  0  0  0  0  0  0  0
    3.1143    1.6419    2.4224 H   0  0  0  0  0  0  0  0  0  0  0  0
    3.4171   -3.0906    0.3655 H   0  0  0  0  0  0  0  0  0  0  0  0
   -0.6251   -5.9373    0.2171 H   0  0  0  0  0  0  0  0  0  0  0  0
   -3.1433   -2.6474    0.4213 H   0  0  0  0  0  0  0  0  0  0  0  0
   -0.9246   -1.1105    2.8110 H   0  0  0  0  0  0  0  0  0  0  0  0
   -1.5963    1.1108    3.5041 H   0  0  0  0  0  0  0  0  0  0  0  0
   -2.4009    4.4091    0.1263 H   0  0  0  0  0  0  0  0  0  0  0  0
   -4.0890    3.9520   -0.1161 H   0  0  0  0  0  0  0  0  0  0  0  0
   -3.1396    2.7722   -2.6259 H   0  0  0  0  0  0  0  0  0  0  0  0
   -0.5920   -1.5998   -2.2129 H   0  0  0  0  0  0  0  0  0  0  0  0
   -2.3209   -2.0331   -2.3713 H   0  0  0  0  0  0  0  0  0  0  0  0
  1  2  1  0
  2  3  1  0
  3  4  2  0
  4  5  1  0
  5  6  2  0
  6  7  1  0
  7  8  2  0
  6  9  1  0
  9 10  1  0
 10 11  2  0
 11 12  1  0
 12 13  2  0
 13 14  1  0
 14 15  2  0
 15 16  1  0
 16 17  1  0
 17 18  2  0
 18 19  1  0
 19 20  2  0
 20 21  1  0
 21 22  2  0
 22 23  1  0
 22 24  1  0
 24 25  2  0
 25 26  1  0
 26 27  1  0
 26 28  2  0
 16 29  2  0
  8  3  1  0
 29  9  1  0
 29 12  1  0
 28 17  1  0
 28 21  1  0
  1 30  1  0
  1 31  1  0
  1 32  1  0
  4 33  1  0
  5 34  1  0
  7 35  1  0
  8 36  1  0
 10 37  1  0
 13 38  1  0
 15 39  1  0
 18 40  1  0
 19 41  1  0
 23 42  1  0
 23 43  1  0
 24 44  1  0
 27 45  1  0
 27 46  1  0
M  END
$$$$
